Version 4
SHEET 1 880 680
WIRE 176 64 96 64
WIRE 352 64 240 64
WIRE 512 64 352 64
WIRE 560 64 512 64
WIRE 96 112 96 64
WIRE 512 112 512 64
WIRE 352 144 352 64
WIRE 96 288 96 192
WIRE 352 288 352 208
WIRE 352 288 96 288
WIRE 416 288 352 288
WIRE 512 288 512 192
WIRE 512 288 416 288
FLAG 416 288 0
FLAG 560 64 Vout
SYMBOL voltage 96 96 R0
WINDOW 123 0 0 Left 0
WINDOW 39 0 0 Left 0
SYMATTR InstName V1
SYMATTR Value SINE(0 5 5K)
SYMBOL diode 176 80 R270
WINDOW 0 32 32 VTop 2
WINDOW 3 0 32 VBottom 2
SYMATTR InstName D1
SYMBOL cap 336 144 R0
SYMATTR InstName C1
SYMATTR Value 100n
SYMBOL res 496 96 R0
SYMATTR InstName Rload
SYMATTR Value {R}
TEXT 62 312 Left 2 !.tran 0 1m 0 1m
TEXT 64 352 Left 2 !.step param R list 100 220 470 1K 2.2K 4.7K 10K 22K
