Version 4
SHEET 1 880 680
WIRE 192 -144 96 -144
WIRE 400 -144 272 -144
WIRE 256 32 256 16
WIRE 96 48 96 -144
WIRE 96 48 0 48
WIRE 224 48 96 48
WIRE 0 64 0 48
WIRE 96 64 96 48
WIRE 400 64 400 -144
WIRE 400 64 288 64
WIRE 256 112 256 96
WIRE 0 160 0 144
WIRE 96 160 96 144
WIRE 0 288 0 240
WIRE 96 288 96 240
WIRE 96 288 0 288
WIRE 224 288 224 80
WIRE 224 288 96 288
FLAG 256 16 Vcc+
IOPIN 256 16 In
FLAG 256 112 Vcc-
IOPIN 256 112 In
FLAG 528 64 Vcc+
IOPIN 528 64 Out
FLAG 624 64 Vcc-
IOPIN 624 64 Out
FLAG 96 288 0
FLAG 528 144 0
FLAG 624 144 0
FLAG 400 64 Output
SYMBOL Opamps\\UniversalOpamp2 256 64 R0
SYMATTR InstName U1
SYMBOL res -16 48 R0
SYMATTR InstName R1
SYMATTR Value 2.2K
SYMBOL res 80 48 R0
SYMATTR InstName R2
SYMATTR Value 1K
SYMBOL res 288 -160 R90
WINDOW 0 0 56 VBottom 2
WINDOW 3 32 56 VTop 2
SYMATTR InstName R3
SYMATTR Value 1K
SYMBOL voltage 0 144 R0
WINDOW 123 0 0 Left 0
WINDOW 39 0 0 Left 0
SYMATTR InstName V1
SYMATTR Value 2
SYMBOL voltage 96 144 R0
WINDOW 123 0 0 Left 0
WINDOW 39 0 0 Left 0
SYMATTR InstName V2
SYMATTR Value PULSE(-1 1 0 0.5m 0.5m 0 1m 1000)
SYMBOL voltage 528 48 R0
WINDOW 123 0 0 Left 0
WINDOW 39 0 0 Left 0
SYMATTR InstName V3
SYMATTR Value 5
SYMBOL voltage 624 48 R0
WINDOW 123 0 0 Left 0
WINDOW 39 0 0 Left 0
SYMATTR InstName V4
SYMATTR Value -5
TEXT -34 312 Left 2 !.tran 0 10m 0 0.5m
